/*--------------------------------*- C++ -*----------------------------------*\
| =========                 |                                                 |
| \\      /  F ield         | OpenFOAM: The Open Source CFD Toolbox           |
|  \\    /   O peration     | Version:  2312                                  |
|   \\  /    A nd           | Website:  www.openfoam.com                      |
|    \\/     M anipulation  |                                                 |
\*---------------------------------------------------------------------------*/
FoamFile
{
    version     2.0;
    format      ascii;
    arch        "LSB;label=32;scalar=64";
    class       volVectorField;
    location    "0.00000000e+00";
    object      U;
}
// * * * * * * * * * * * * * * * * * * * * * * * * * * * * * * * * * * * * * //

dimensions      [0 1 -1 0 0 0 0];

internalField   uniform (0,0,0); 

boundaryField
{
    patch0_half0
    {
        type            cyclic;
    }
    patch0_half1
    {
        type            cyclic;
    }
    patch1_half0
    {
        type            cyclic;
    }
    patch1_half1
    {
        type            cyclic;
    }
    under_side
    {
        type            waveTransmissive;
        gamma           1.38;
        fieldInf        (-15 0 0);
        lInf            0.04032;
        value           uniform (-15 0 0);
    }
    upper_side
    {
        type            waveTransmissive;
        gamma           1.38;
        fieldInf        (-15 0 0);
        lInf            0.04032;
        value           uniform (-15 0 0);
    }
}


// ************************************************************************* //
